<?xml version="1.0" encoding="UTF-8"?>
<routes>
	<vType accel="2.6" decel="4.5" id="CarA" length="5.0" minGap="2.5" maxSpeed="50.0" sigma="0.5" lcKeepRight="0" tau="0.1" speedFactor="1" SpeedDev="1"/>
	<vType accel="2.6" decel="4.5" id="CarB" length="5.0" minGap="2.5" maxSpeed="30.0" sigma="0.5" lcKeepRight="0"/>
	<route id="route01" edges="E0 E1 E2"/>
	<flow id="slow_car" type="CarB" from="E0" to="E2" begin="0" end="3600" number="1200" departPos="base" departSpeed="max" departLane="random"/>
	<vehicle depart="180" id="av_0" route="route01" type="CarA" color="1,0,0" departLane="random" departSpeed="45.0"/>
</routes>