<?xml version="1.0" encoding="UTF-8"?>

<!-- generated on 2023-06-11 23:18:17 by Eclipse SUMO netedit Version 1.15.0
<configuration xmlns:xsi="http://www.w3.org/2001/XMLSchema-instance" xsi:noNamespaceSchemaLocation="http://sumo.dlr.de/xsd/netconvertConfiguration.xsd">

    <input>
        <sumo-net-file value="/Users/ldas/Desktop/test_project/intelligent-self-driving-car/SUMO-RL-ENVIRONMENT/gym_sumo/gym_sumo/envs/xml_files/test.net.xml"/>
    </input>

    <output>
        <output-file value="/Users/ldas/Desktop/test_project/intelligent-self-driving-car/SUMO-RL-ENVIRONMENT/gym_sumo/gym_sumo/envs/xml_files/test.net.xml"/>
    </output>

    <processing>
        <geometry.min-radius.fix.railways value="false"/>
        <geometry.max-grade.fix value="false"/>
        <offset.disable-normalization value="true"/>
        <lefthand value="0"/>
    </processing>

    <junctions>
        <no-turnarounds value="true"/>
        <junctions.corner-detail value="5"/>
        <junctions.limit-turn-speed value="5.50"/>
        <rectangular-lane-cut value="0"/>
    </junctions>

    <pedestrian>
        <walkingareas value="0"/>
    </pedestrian>

</configuration>
-->

<net version="1.9" junctionCornerDetail="5" limitTurnSpeed="5.50" xmlns:xsi="http://www.w3.org/2001/XMLSchema-instance" xsi:noNamespaceSchemaLocation="http://sumo.dlr.de/xsd/net_file.xsd">

    <location netOffset="0.00,0.00" convBoundary="-50.00,100.00,9950.00,100.00" origBoundary="-10000000000.00,-10000000000.00,10000000000.00,10000000000.00" projParameter="!"/>

    <edge id=":J1_0" function="internal">
        <lane id=":J1_0_0" index="0" speed="55.55" length="0.10" shape="950.00,93.60 950.00,93.60"/>
        <lane id=":J1_0_1" index="1" speed="55.55" length="0.10" shape="950.00,96.80 950.00,96.80"/>
        <lane id=":J1_0_2" index="2" speed="55.55" length="0.10" shape="950.00,100.00 950.00,100.00"/>
        <lane id=":J1_0_3" index="3" speed="55.55" length="0.10" shape="950.00,103.20 950.00,103.20"/>
        <lane id=":J1_0_4" index="4" speed="55.55" length="0.10" shape="950.00,106.40 950.00,106.40"/>
    </edge>
    <edge id=":J2_0" function="internal">
        <lane id=":J2_0_0" index="0" speed="55.55" length="0.10" shape="1950.00,93.60 1950.00,93.60"/>
        <lane id=":J2_0_1" index="1" speed="55.55" length="0.10" shape="1950.00,96.80 1950.00,96.80"/>
        <lane id=":J2_0_2" index="2" speed="55.55" length="0.10" shape="1950.00,100.00 1950.00,100.00"/>
        <lane id=":J2_0_3" index="3" speed="55.55" length="0.10" shape="1950.00,103.20 1950.00,103.20"/>
        <lane id=":J2_0_4" index="4" speed="55.55" length="0.10" shape="1950.00,106.40 1950.00,106.40"/>
    </edge>

    <edge id="E0" from="J0" to="J1" priority="-1" spreadType="center">
        <lane id="E0_0" index="0" speed="55.55" length="1000.00" shape="-50.00,93.60 950.00,93.60"/>
        <lane id="E0_1" index="1" speed="55.55" length="1000.00" shape="-50.00,96.80 950.00,96.80"/>
        <lane id="E0_2" index="2" speed="55.55" length="1000.00" shape="-50.00,100.00 950.00,100.00"/>
        <lane id="E0_3" index="3" speed="55.55" length="1000.00" shape="-50.00,103.20 950.00,103.20"/>
        <lane id="E0_4" index="4" speed="55.55" length="1000.00" shape="-50.00,106.40 950.00,106.40"/>
    </edge>
    <edge id="E1" from="J1" to="J2" priority="-1" spreadType="center">
        <lane id="E1_0" index="0" speed="55.55" length="1000.00" shape="950.00,93.60 1950.00,93.60"/>
        <lane id="E1_1" index="1" speed="55.55" length="1000.00" shape="950.00,96.80 1950.00,96.80"/>
        <lane id="E1_2" index="2" speed="55.55" length="1000.00" shape="950.00,100.00 1950.00,100.00"/>
        <lane id="E1_3" index="3" speed="55.55" length="1000.00" shape="950.00,103.20 1950.00,103.20"/>
        <lane id="E1_4" index="4" speed="55.55" length="1000.00" shape="950.00,106.40 1950.00,106.40"/>
    </edge>
    <edge id="E2" from="J2" to="J3" priority="-1" spreadType="center">
        <lane id="E2_0" index="0" speed="55.55" length="8000.00" shape="1950.00,93.60 9950.00,93.60"/>
        <lane id="E2_1" index="1" speed="55.55" length="8000.00" shape="1950.00,96.80 9950.00,96.80"/>
        <lane id="E2_2" index="2" speed="55.55" length="8000.00" shape="1950.00,100.00 9950.00,100.00"/>
        <lane id="E2_3" index="3" speed="55.55" length="8000.00" shape="1950.00,103.20 9950.00,103.20"/>
        <lane id="E2_4" index="4" speed="55.55" length="8000.00" shape="1950.00,106.40 9950.00,106.40"/>
    </edge>

    <junction id="J0" type="dead_end" x="-50.00" y="100.00" incLanes="" intLanes="" shape="-50.00,108.00 -50.00,92.00"/>
    <junction id="J1" type="priority" x="950.00" y="100.00" incLanes="E0_0 E0_1 E0_2 E0_3 E0_4" intLanes=":J1_0_0 :J1_0_1 :J1_0_2 :J1_0_3 :J1_0_4" shape="950.00,108.00 950.00,92.00 950.00,108.00">
        <request index="0" response="00000" foes="00000" cont="0"/>
        <request index="1" response="00000" foes="00000" cont="0"/>
        <request index="2" response="00000" foes="00000" cont="0"/>
        <request index="3" response="00000" foes="00000" cont="0"/>
        <request index="4" response="00000" foes="00000" cont="0"/>
    </junction>
    <junction id="J2" type="priority" x="1950.00" y="100.00" incLanes="E1_0 E1_1 E1_2 E1_3 E1_4" intLanes=":J2_0_0 :J2_0_1 :J2_0_2 :J2_0_3 :J2_0_4" shape="1950.00,108.00 1950.00,92.00 1950.00,108.00">
        <request index="0" response="00000" foes="00000" cont="0"/>
        <request index="1" response="00000" foes="00000" cont="0"/>
        <request index="2" response="00000" foes="00000" cont="0"/>
        <request index="3" response="00000" foes="00000" cont="0"/>
        <request index="4" response="00000" foes="00000" cont="0"/>
    </junction>
    <junction id="J3" type="dead_end" x="9950.00" y="100.00" incLanes="E2_0 E2_1 E2_2 E2_3 E2_4" intLanes="" shape="9950.00,92.00 9950.00,108.00"/>

    <connection from="E0" to="E1" fromLane="0" toLane="0" via=":J1_0_0" dir="s" state="M"/>
    <connection from="E0" to="E1" fromLane="1" toLane="1" via=":J1_0_1" dir="s" state="M"/>
    <connection from="E0" to="E1" fromLane="2" toLane="2" via=":J1_0_2" dir="s" state="M"/>
    <connection from="E0" to="E1" fromLane="3" toLane="3" via=":J1_0_3" dir="s" state="M"/>
    <connection from="E0" to="E1" fromLane="4" toLane="4" via=":J1_0_4" dir="s" state="M"/>
    <connection from="E1" to="E2" fromLane="0" toLane="0" via=":J2_0_0" dir="s" state="M"/>
    <connection from="E1" to="E2" fromLane="1" toLane="1" via=":J2_0_1" dir="s" state="M"/>
    <connection from="E1" to="E2" fromLane="2" toLane="2" via=":J2_0_2" dir="s" state="M"/>
    <connection from="E1" to="E2" fromLane="3" toLane="3" via=":J2_0_3" dir="s" state="M"/>
    <connection from="E1" to="E2" fromLane="4" toLane="4" via=":J2_0_4" dir="s" state="M"/>

    <connection from=":J1_0" to="E1" fromLane="0" toLane="0" dir="s" state="M"/>
    <connection from=":J1_0" to="E1" fromLane="1" toLane="1" dir="s" state="M"/>
    <connection from=":J1_0" to="E1" fromLane="2" toLane="2" dir="s" state="M"/>
    <connection from=":J1_0" to="E1" fromLane="3" toLane="3" dir="s" state="M"/>
    <connection from=":J1_0" to="E1" fromLane="4" toLane="4" dir="s" state="M"/>
    <connection from=":J2_0" to="E2" fromLane="0" toLane="0" dir="s" state="M"/>
    <connection from=":J2_0" to="E2" fromLane="1" toLane="1" dir="s" state="M"/>
    <connection from=":J2_0" to="E2" fromLane="2" toLane="2" dir="s" state="M"/>
    <connection from=":J2_0" to="E2" fromLane="3" toLane="3" dir="s" state="M"/>
    <connection from=":J2_0" to="E2" fromLane="4" toLane="4" dir="s" state="M"/>

</net>
